/*--------------------------------*- C++ -*----------------------------------*\
| =========                 |                                                 |
| \\      /  F ield         | OpenFOAM: The Open Source CFD Toolbox           |
|  \\    /   O peration     | Version:  5                                     |
|   \\  /    A nd           | Web:      www.OpenFOAM.org                      |
|    \\/     M anipulation  |                                                 |
\*---------------------------------------------------------------------------*/
FoamFile
{
    version     2.0;
    format      ascii;
    class       dictionary;
    location    "system";
    object      fvSolution;
}
// * * * * * * * * * * * * * * * * * * * * * * * * * * * * * * * * * * * * * //

solvers
{
    p
    {
        solver          GAMG;
        tolerance       1e-06;
        relTol          0.1;
        smoother        GaussSeidel;
    }

    U
    {
        solver          smoothSolver;
        smoother        GaussSeidel;
        nSweeps         2;
        tolerance       1e-08;
        relTol          0.1;
    }

    "(epsilon|k|omega)"
    {
        solver          smoothSolver;
        smoother        GaussSeidel;
        nSweeps         2;
        tolerance       1e-08;
        relTol          0.01;
    }
    Phi
    {
        solver          GAMG;
        smoother        DIC;

        tolerance       1e-06;
        relTol          0.01;
    }


}

SIMPLE
{
    nNonOrthogonalCorrectors 2;
    pRefCell        0;
    pRefValue       0;
    
    consistent      yes;

    residualControl
    {
        p               1e-5;
        U               1e-5;
        epsilon         1e-5;
        k               1e-5;
        omega		1e-05;
        
    }
}

potentialFlow
{
    nNonOrthogonalCorrectors 10;
}


relaxationFactors
{
    fields
    {
        p               0.3;
    }
    equations
    {
        U               0.7;
        epsilon         0.7;
        k	        0.7;
        omega		0.7;
    }
        
}


// ************************************************************************* //
